 xtb: 6.7.1 (edcfbbe)
          08202602453D

 17 17  0     0  0            999 V2000
    2.5225    0.2319   -0.0015 C   0  0  0  0  0  0  0  0  0  0  0  0
    1.0390    0.3398   -0.0018 C   0  0  0  0  0  0  0  0  0  0  0  0
    0.2599    1.5140    0.0003 C   0  0  0  0  0  0  0  0  0  0  0  0
   -1.0428    1.0804   -0.0040 C   0  0  0  0  0  0  0  0  0  0  0  0
   -0.9929   -0.2672   -0.0081 N   0  0  0  0  0  0  0  0  0  0  0  0
    0.2570   -0.7268   -0.0071 N   0  0  0  0  0  0  0  0  0  0  0  0
    2.9715    1.2218    0.0048 H   0  0  0  0  0  0  0  0  0  0  0  0
    2.8607   -0.3102   -0.8825 H   0  0  0  0  0  0  0  0  0  0  0  0
    2.8607   -0.3214    0.8727 H   0  0  0  0  0  0  0  0  0  0  0  0
    0.6132    2.5243    0.0032 H   0  0  0  0  0  0  0  0  0  0  0  0
   -1.9699    1.6177   -0.0034 H   0  0  0  0  0  0  0  0  0  0  0  0
   -1.7586   -0.9196   -0.0182 H   0  0  0  0  0  0  0  0  0  0  0  0
   -3.7273   -2.9229    0.0109 C   0  0  0  0  0  0  0  0  0  0  0  0
   -4.6227   -3.8004    0.0078 N   0  0  0  0  0  0  0  0  0  0  0  0
   -5.4351   -4.5835    0.0031 N   0  0  0  0  0  0  0  0  0  0  0  0
   -2.6950   -3.2183    0.0164 H   0  0  0  0  0  0  0  0  0  0  0  0
   -4.0169   -1.8889    0.0181 H   0  0  0  0  0  0  0  0  0  0  0  0
  1  2  1  0  0  0  0
  2  3  4  0  0  0  0
  3  4  2  0  0  0  0
  4  5  4  0  0  0  0
  2  6  4  0  0  0  0
  5  6  4  0  0  0  0
  1  7  1  0  0  0  0
  1  8  1  0  0  0  0
  1  9  1  0  0  0  0
  3 10  1  0  0  0  0
  4 11  1  0  0  0  0
  5 12  1  0  0  0  0
 13 14  2  0  0  0  0
 13 15  1  0  0  0  0
 14 15  2  0  0  0  0
 13 16  1  0  0  0  0
 13 17  1  0  0  0  0
M  END
