 xtb: 6.7.1 (edcfbbe)
          08202602263D

 17 17  0     0  0            999 V2000
   -2.3816   -1.2327   -0.4351 C   0  0  0  0  0  0  0  0  0  0  0  0
   -1.2077   -0.4331   -0.0072 C   0  0  0  0  0  0  0  0  0  0  0  0
   -1.0500    0.8920   -0.1566 C   0  0  0  0  0  0  0  0  0  0  0  0
    0.1562    1.5590    0.1822 C   0  0  0  0  0  0  0  0  0  0  0  0
    1.2697    0.8946    0.4098 N   0  0  0  0  0  0  0  0  0  0  0  0
    1.3942   -0.3956    0.4673 N   0  0  0  0  0  0  0  0  0  0  0  0
    2.5270    1.6149    0.5280 C   0  0  0  0  0  0  0  0  0  0  0  0
    0.0779   -1.3423    0.9197 S   0  0  0  0  0  0  0  0  0  0  0  0
   -0.2306   -1.0063    2.3137 O   0  0  0  0  0  0  0  0  0  0  0  0
   -2.8539   -1.6881    0.4352 H   0  0  0  0  0  0  0  0  0  0  0  0
   -2.0625   -2.0404   -1.0936 H   0  0  0  0  0  0  0  0  0  0  0  0
   -3.1142   -0.6188   -0.9549 H   0  0  0  0  0  0  0  0  0  0  0  0
   -1.8427    1.5025   -0.5717 H   0  0  0  0  0  0  0  0  0  0  0  0
    0.2101    2.6342    0.1626 H   0  0  0  0  0  0  0  0  0  0  0  0
    3.0325    1.6284   -0.4385 H   0  0  0  0  0  0  0  0  0  0  0  0
    3.1587    1.0896    1.2417 H   0  0  0  0  0  0  0  0  0  0  0  0
    2.3501    2.6345    0.8623 H   0  0  0  0  0  0  0  0  0  0  0  0
  1  2  1  0  0  0  0
  2  3  2  0  0  0  0
  3  4  4  0  0  0  0
  4  5  4  0  0  0  0
  5  6  4  0  0  0  0
  5  7  1  0  0  0  0
  2  8  1  0  0  0  0
  6  8  1  0  0  0  0
  8  9  2  0  0  0  0
  1 10  1  0  0  0  0
  1 11  1  0  0  0  0
  1 12  1  0  0  0  0
  3 13  1  0  0  0  0
  4 14  1  0  0  0  0
  7 15  1  0  0  0  0
  7 16  1  0  0  0  0
  7 17  1  0  0  0  0
M  END
