 xtb: 6.7.1 (edcfbbe)
          08202602533D

 17 18  0     0  0            999 V2000
   -1.8317   -1.6963   -0.5154 C   0  0  0  0  0  0  0  0  0  0  0  0
   -1.1625   -0.6373    0.2840 C   0  0  0  0  0  0  0  0  0  0  0  0
   -1.4557    0.7197    0.2937 C   0  0  0  0  0  0  0  0  0  0  0  0
   -0.3917    1.5493    0.5760 C   0  0  0  0  0  0  0  0  0  0  0  0
    0.8060    0.9598    0.4185 N   0  0  0  0  0  0  0  0  0  0  0  0
    0.8494   -0.3650    0.3414 N   0  0  0  0  0  0  0  0  0  0  0  0
    2.0160    1.6769    0.1080 C   0  0  0  0  0  0  0  0  0  0  0  0
   -0.0344   -1.1447    1.5959 S   0  0  0  0  0  0  0  0  0  0  0  0
   -0.1914   -0.2229    2.7169 O   0  0  0  0  0  0  0  0  0  0  0  0
   -2.7116   -2.0654    0.0144 H   0  0  0  0  0  0  0  0  0  0  0  0
   -1.1500   -2.5318   -0.6572 H   0  0  0  0  0  0  0  0  0  0  0  0
   -2.1423   -1.3227   -1.4899 H   0  0  0  0  0  0  0  0  0  0  0  0
   -2.4103    1.1044   -0.0176 H   0  0  0  0  0  0  0  0  0  0  0  0
   -0.4358    2.6133    0.7188 H   0  0  0  0  0  0  0  0  0  0  0  0
    2.6553    1.0119   -0.4714 H   0  0  0  0  0  0  0  0  0  0  0  0
    2.5394    1.9556    1.0261 H   0  0  0  0  0  0  0  0  0  0  0  0
    1.7918    2.5743   -0.4677 H   0  0  0  0  0  0  0  0  0  0  0  0
  1  2  1  0  0  0  0
  2  3  4  0  0  0  0
  3  4  4  0  0  0  0
  4  5  4  0  0  0  0
  2  6  1  0  0  0  0
  5  6  4  0  0  0  0
  5  7  1  0  0  0  0
  2  8  1  0  0  0  0
  6  8  1  0  0  0  0
  8  9  2  0  0  0  0
  1 10  1  0  0  0  0
  1 11  1  0  0  0  0
  1 12  1  0  0  0  0
  3 13  1  0  0  0  0
  4 14  1  0  0  0  0
  7 15  1  0  0  0  0
  7 16  1  0  0  0  0
  7 17  1  0  0  0  0
M  END
