 xtb: 6.7.1 (edcfbbe)
          08202602263D

 15 15  0     0  0            999 V2000
   -0.9951   -1.4628    0.2849 C   0  0  0  0  0  0  0  0  0  0  0  0
    0.1823   -0.5817    0.0799 C   0  0  0  0  0  0  0  0  0  0  0  0
    1.5338   -0.8577    0.0452 C   0  0  0  0  0  0  0  0  0  0  0  0
    2.1465    0.3800   -0.1839 C   0  0  0  0  0  0  0  0  0  0  0  0
    1.2476    1.3397   -0.2820 N   0  0  0  0  0  0  0  0  0  0  0  0
    0.0639    0.7513   -0.1220 N   0  0  0  0  0  0  0  0  0  0  0  0
   -1.1428    1.5215   -0.1701 C   0  0  0  0  0  0  0  0  0  0  0  0
   -0.6662   -2.4881    0.4284 H   0  0  0  0  0  0  0  0  0  0  0  0
   -1.6606   -1.4270   -0.5782 H   0  0  0  0  0  0  0  0  0  0  0  0
   -1.5636   -1.1521    1.1621 H   0  0  0  0  0  0  0  0  0  0  0  0
    2.0062   -1.8109    0.1673 H   0  0  0  0  0  0  0  0  0  0  0  0
    3.1903    0.6038   -0.2793 H   0  0  0  0  0  0  0  0  0  0  0  0
   -1.6816    1.4592    0.7783 H   0  0  0  0  0  0  0  0  0  0  0  0
   -0.8642    2.5558   -0.3596 H   0  0  0  0  0  0  0  0  0  0  0  0
   -1.7966    1.1690   -0.9711 H   0  0  0  0  0  0  0  0  0  0  0  0
  1  2  1  0  0  0  0
  2  3  4  0  0  0  0
  3  4  4  0  0  0  0
  4  5  2  0  0  0  0
  2  6  4  0  0  0  0
  5  6  1  0  0  0  0
  6  7  1  0  0  0  0
  1  8  1  0  0  0  0
  1  9  1  0  0  0  0
  1 10  1  0  0  0  0
  3 11  1  0  0  0  0
  4 12  1  0  0  0  0
  7 13  1  0  0  0  0
  7 14  1  0  0  0  0
  7 15  1  0  0  0  0
M  END
