 xtb: 6.7.1 (edcfbbe)
          08202602353D

 15 15  0     0  0            999 V2000
   -2.4633    0.6477   -0.0204 C   0  0  0  0  0  0  0  0  0  0  0  0
   -1.0832    0.0939   -0.0157 C   0  0  0  0  0  0  0  0  0  0  0  0
   -0.0157    0.8750   -0.0217 N   0  0  0  0  0  0  0  0  0  0  0  0
    1.0433    0.0701   -0.0158 N   0  0  0  0  0  0  0  0  0  0  0  0
    0.6799   -1.2278   -0.0075 C   0  0  0  0  0  0  0  0  0  0  0  0
   -0.6940   -1.2581   -0.0066 C   0  0  0  0  0  0  0  0  0  0  0  0
    2.3739    0.6039   -0.0277 C   0  0  0  0  0  0  0  0  0  0  0  0
   -2.4190    1.7327   -0.0001 H   0  0  0  0  0  0  0  0  0  0  0  0
   -3.0174    0.2944    0.8482 H   0  0  0  0  0  0  0  0  0  0  0  0
   -2.9968    0.3284   -0.9151 H   0  0  0  0  0  0  0  0  0  0  0  0
    1.4081   -2.0139   -0.0017 H   0  0  0  0  0  0  0  0  0  0  0  0
   -1.3308   -2.1188    0.0005 H   0  0  0  0  0  0  0  0  0  0  0  0
    2.2953    1.6885    0.0061 H   0  0  0  0  0  0  0  0  0  0  0  0
    2.9019    0.3079   -0.9372 H   0  0  0  0  0  0  0  0  0  0  0  0
    2.9379    0.2532    0.8390 H   0  0  0  0  0  0  0  0  0  0  0  0
  1  2  1  0  0  0  0
  2  3  4  0  0  0  0
  3  4  1  0  0  0  0
  4  5  4  0  0  0  0
  2  6  4  0  0  0  0
  5  6  2  0  0  0  0
  4  7  1  0  0  0  0
  1  8  1  0  0  0  0
  1  9  1  0  0  0  0
  1 10  1  0  0  0  0
  5 11  1  0  0  0  0
  6 12  1  0  0  0  0
  7 13  1  0  0  0  0
  7 14  1  0  0  0  0
  7 15  1  0  0  0  0
M  END
