 xtb: 6.7.1 (edcfbbe)
          08202608333D

 16 16  0     0  0            999 V2000
   -2.5627    0.0488   -0.0030 C   0  0  0  0  0  0  0  0  0  0  0  0
   -1.0914    0.2382    0.0089 C   0  0  0  0  0  0  0  0  0  0  0  0
   -0.1378   -0.3981   -0.6699 C   0  0  0  0  0  0  0  0  0  0  0  0
    1.1535    0.0749   -0.5490 N   0  0  0  0  0  0  0  0  0  0  0  0
    2.2317   -0.8789   -0.3636 C   0  0  0  0  0  0  0  0  0  0  0  0
    1.1873    1.1443    0.3816 N   0  0  0  0  0  0  0  0  0  0  0  0
   -0.3564    1.4737    1.1232 S   0  0  0  0  0  0  0  0  0  0  0  0
   -0.3925    0.8781    2.4498 O   0  0  0  0  0  0  0  0  0  0  0  0
   -2.8335   -0.8492   -0.5550 H   0  0  0  0  0  0  0  0  0  0  0  0
   -3.0593    0.9049   -0.4625 H   0  0  0  0  0  0  0  0  0  0  0  0
   -2.9260   -0.0406    1.0206 H   0  0  0  0  0  0  0  0  0  0  0  0
   -0.2831   -1.2361   -1.3323 H   0  0  0  0  0  0  0  0  0  0  0  0
    3.1781   -0.3490   -0.4594 H   0  0  0  0  0  0  0  0  0  0  0  0
    2.1619   -1.6351   -1.1425 H   0  0  0  0  0  0  0  0  0  0  0  0
    2.1913   -1.3601    0.6185 H   0  0  0  0  0  0  0  0  0  0  0  0
    1.5389    1.9841   -0.0654 H   0  0  0  0  0  0  0  0  0  0  0  0
  1  2  1  0  0  0  0
  2  3  2  0  0  0  0
  3  4  1  0  0  0  0
  4  5  1  0  0  0  0
  4  6  1  0  0  0  0
  2  7  1  0  0  0  0
  6  7  1  0  0  0  0
  7  8  2  0  0  0  0
  1  9  1  0  0  0  0
  1 10  1  0  0  0  0
  1 11  1  0  0  0  0
  3 12  1  0  0  0  0
  5 13  1  0  0  0  0
  5 14  1  0  0  0  0
  5 15  1  0  0  0  0
  6 16  1  0  0  0  0
M  END
