 xtb: 6.7.1 (edcfbbe)
          08202602503D

 17 18  0     0  0            999 V2000
   -2.4720   -0.2474   -1.0871 C   0  0  0  0  0  0  0  0  0  0  0  0
   -1.3280   -0.0360   -0.1630 C   0  0  0  0  0  0  0  0  0  0  0  0
   -0.4692   -0.9996    0.3480 C   0  0  0  0  0  0  0  0  0  0  0  0
    0.8063   -0.5596    0.6310 C   0  0  0  0  0  0  0  0  0  0  0  0
    1.1228    0.5959    0.0211 N   0  0  0  0  0  0  0  0  0  0  0  0
    2.4689    0.9906   -0.3040 C   0  0  0  0  0  0  0  0  0  0  0  0
    0.1374    1.3268   -0.4874 N   0  0  0  0  0  0  0  0  0  0  0  0
   -1.1573    1.5806    0.6186 S   0  0  0  0  0  0  0  0  0  0  0  0
   -0.6733    1.3808    1.9812 O   0  0  0  0  0  0  0  0  0  0  0  0
   -3.4096   -0.2742   -0.5292 H   0  0  0  0  0  0  0  0  0  0  0  0
   -2.3638   -1.1758   -1.6448 H   0  0  0  0  0  0  0  0  0  0  0  0
   -2.5279    0.5806   -1.7910 H   0  0  0  0  0  0  0  0  0  0  0  0
   -0.7397   -2.0386    0.4065 H   0  0  0  0  0  0  0  0  0  0  0  0
    1.5822   -1.1246    1.1140 H   0  0  0  0  0  0  0  0  0  0  0  0
    3.1028    0.1136   -0.4280 H   0  0  0  0  0  0  0  0  0  0  0  0
    2.4341    1.5608   -1.2318 H   0  0  0  0  0  0  0  0  0  0  0  0
    2.8797    1.6283    0.4830 H   0  0  0  0  0  0  0  0  0  0  0  0
  1  2  1  0  0  0  0
  2  3  4  0  0  0  0
  3  4  4  0  0  0  0
  4  5  4  0  0  0  0
  5  6  1  0  0  0  0
  2  7  1  0  0  0  0
  5  7  4  0  0  0  0
  2  8  1  0  0  0  0
  7  8  1  0  0  0  0
  8  9  2  0  0  0  0
  1 10  1  0  0  0  0
  1 11  1  0  0  0  0
  1 12  1  0  0  0  0
  3 13  1  0  0  0  0
  4 14  1  0  0  0  0
  6 15  1  0  0  0  0
  6 16  1  0  0  0  0
  6 17  1  0  0  0  0
M  END
