 xtb: 6.7.1 (edcfbbe)
          08202602453D

 17 18  0     0  0            999 V2000
    1.5780   -1.0996    0.4887 C   0  0  0  0  0  0  0  0  0  0  0  0
    0.7496   -0.3810   -0.5181 C   0  0  0  0  0  0  0  0  0  0  0  0
    1.0943    0.7086   -1.3140 C   0  0  0  0  0  0  0  0  0  0  0  0
    0.0328    1.5742   -1.5400 C   0  0  0  0  0  0  0  0  0  0  0  0
   -1.0312    1.3918   -0.7788 N   0  0  0  0  0  0  0  0  0  0  0  0
   -0.9746    0.2467   -0.1370 N   0  0  0  0  0  0  0  0  0  0  0  0
   -1.6837    0.1018    1.1069 C   0  0  0  0  0  0  0  0  0  0  0  0
   -0.7392   -1.2883   -1.1160 S   0  0  0  0  0  0  0  0  0  0  0  0
   -0.9628   -0.9705   -2.5108 O   0  0  0  0  0  0  0  0  0  0  0  0
    2.2331   -1.8213   -0.0011 H   0  0  0  0  0  0  0  0  0  0  0  0
    0.9367   -1.6482    1.1769 H   0  0  0  0  0  0  0  0  0  0  0  0
    2.1927   -0.4055    1.0600 H   0  0  0  0  0  0  0  0  0  0  0  0
    2.1057    0.9583   -1.5729 H   0  0  0  0  0  0  0  0  0  0  0  0
    0.0625    2.4500   -2.1606 H   0  0  0  0  0  0  0  0  0  0  0  0
   -2.7610    0.1577    0.9374 H   0  0  0  0  0  0  0  0  0  0  0  0
   -1.4411   -0.8682    1.5376 H   0  0  0  0  0  0  0  0  0  0  0  0
   -1.3918    0.8936    1.7977 H   0  0  0  0  0  0  0  0  0  0  0  0
  1  2  1  0  0  0  0
  2  3  4  0  0  0  0
  3  4  4  0  0  0  0
  4  5  4  0  0  0  0
  2  6  1  0  0  0  0
  5  6  4  0  0  0  0
  6  7  1  0  0  0  0
  2  8  1  0  0  0  0
  6  8  1  0  0  0  0
  8  9  2  0  0  0  0
  1 10  1  0  0  0  0
  1 11  1  0  0  0  0
  1 12  1  0  0  0  0
  3 13  1  0  0  0  0
  4 14  1  0  0  0  0
  7 15  1  0  0  0  0
  7 16  1  0  0  0  0
  7 17  1  0  0  0  0
M  END
