 xtb: 6.7.1 (edcfbbe)
          08202602513D

 17 17  0     0  0            999 V2000
    0.8418    1.9348    0.5901 O   0  0  0  0  0  0  0  0  0  0  0  0
    0.3489    0.6242    1.0006 S   0  0  0  0  0  0  0  0  0  0  0  0
    1.2689   -0.6226    0.1605 N   0  0  0  0  0  0  0  0  0  0  0  0
    2.6378   -0.6888    0.6142 C   0  0  0  0  0  0  0  0  0  0  0  0
    0.9819   -1.2773   -0.9374 N   0  0  0  0  0  0  0  0  0  0  0  0
   -0.1819   -1.2267   -1.4746 C   0  0  0  0  0  0  0  0  0  0  0  0
   -1.2734   -0.4248   -1.0046 C   0  0  0  0  0  0  0  0  0  0  0  0
   -1.1867    0.3828    0.0571 C   0  0  0  0  0  0  0  0  0  0  0  0
   -2.2702    1.2620    0.5750 C   0  0  0  0  0  0  0  0  0  0  0  0
    2.6581   -0.9361    1.6766 H   0  0  0  0  0  0  0  0  0  0  0  0
    3.1556   -1.4578    0.0454 H   0  0  0  0  0  0  0  0  0  0  0  0
    3.1368    0.2716    0.4639 H   0  0  0  0  0  0  0  0  0  0  0  0
   -0.3064   -1.8350   -2.3564 H   0  0  0  0  0  0  0  0  0  0  0  0
   -2.2022   -0.4836   -1.5580 H   0  0  0  0  0  0  0  0  0  0  0  0
   -2.5166    0.9905    1.6023 H   0  0  0  0  0  0  0  0  0  0  0  0
   -1.9257    2.2959    0.5819 H   0  0  0  0  0  0  0  0  0  0  0  0
   -3.1666    1.1907   -0.0365 H   0  0  0  0  0  0  0  0  0  0  0  0
  1  2  2  0  0  0  0
  2  3  1  0  0  0  0
  3  4  1  0  0  0  0
  3  5  4  0  0  0  0
  5  6  2  0  0  0  0
  6  7  1  0  0  0  0
  2  8  1  0  0  0  0
  7  8  2  0  0  0  0
  8  9  1  0  0  0  0
  4 10  1  0  0  0  0
  4 11  1  0  0  0  0
  4 12  1  0  0  0  0
  6 13  1  0  0  0  0
  7 14  1  0  0  0  0
  9 15  1  0  0  0  0
  9 16  1  0  0  0  0
  9 17  1  0  0  0  0
M  END
