 xtb: 6.7.1 (edcfbbe)
          08202608503D

 16 16  0     0  0            999 V2000
   -2.5025    0.6569   -0.6500 C   0  0  0  0  0  0  0  0  0  0  0  0
   -1.1383    0.1385   -0.3633 C   0  0  0  0  0  0  0  0  0  0  0  0
   -0.7674   -1.0282    0.1664 C   0  0  0  0  0  0  0  0  0  0  0  0
    0.5879   -1.2774    0.2505 N   0  0  0  0  0  0  0  0  0  0  0  0
    1.2904   -0.2203   -0.3638 N   0  0  0  0  0  0  0  0  0  0  0  0
    2.6035    0.0217    0.1666 C   0  0  0  0  0  0  0  0  0  0  0  0
    0.2977    1.2087   -0.6111 S   0  0  0  0  0  0  0  0  0  0  0  0
    0.3053    2.1303    0.5279 O   0  0  0  0  0  0  0  0  0  0  0  0
   -3.0373    0.8791    0.2736 H   0  0  0  0  0  0  0  0  0  0  0  0
   -3.0836   -0.0720   -1.2112 H   0  0  0  0  0  0  0  0  0  0  0  0
   -2.4349    1.5748   -1.2292 H   0  0  0  0  0  0  0  0  0  0  0  0
   -1.4242   -1.8171    0.4967 H   0  0  0  0  0  0  0  0  0  0  0  0
    0.9240   -1.5266    1.1808 H   0  0  0  0  0  0  0  0  0  0  0  0
    3.0682    0.7950   -0.4415 H   0  0  0  0  0  0  0  0  0  0  0  0
    3.1978   -0.8904    0.1000 H   0  0  0  0  0  0  0  0  0  0  0  0
    2.5781    0.3655    1.2101 H   0  0  0  0  0  0  0  0  0  0  0  0
  1  2  1  0  0  0  0
  2  3  2  0  0  0  0
  3  4  1  0  0  0  0
  4  5  1  0  0  0  0
  5  6  1  0  0  0  0
  2  7  1  0  0  0  0
  5  7  1  0  0  0  0
  7  8  2  0  0  0  0
  1  9  1  0  0  0  0
  1 10  1  0  0  0  0
  1 11  1  0  0  0  0
  3 12  1  0  0  0  0
  4 13  1  0  0  0  0
  6 14  1  0  0  0  0
  6 15  1  0  0  0  0
  6 16  1  0  0  0  0
M  END
