 xtb: 6.7.1 (edcfbbe)
          08202602513D

 17 17  0     0  0            999 V2000
   -2.8608   -0.3863   -0.4379 C   0  0  0  0  0  0  0  0  0  0  0  0
   -1.4148   -0.1679   -0.1884 C   0  0  0  0  0  0  0  0  0  0  0  0
   -0.4809   -1.1185   -0.0203 C   0  0  0  0  0  0  0  0  0  0  0  0
    0.9018   -0.8145    0.0735 C   0  0  0  0  0  0  0  0  0  0  0  0
    1.3698    0.3628   -0.2851 N   0  0  0  0  0  0  0  0  0  0  0  0
    2.8061    0.5715   -0.3583 C   0  0  0  0  0  0  0  0  0  0  0  0
    0.6643    1.3987   -0.6225 N   0  0  0  0  0  0  0  0  0  0  0  0
   -0.8885    1.5696    0.0098 S   0  0  0  0  0  0  0  0  0  0  0  0
   -0.7424    1.6983    1.4641 O   0  0  0  0  0  0  0  0  0  0  0  0
   -3.4486    0.0992    0.3410 H   0  0  0  0  0  0  0  0  0  0  0  0
   -3.1052   -1.4470   -0.4598 H   0  0  0  0  0  0  0  0  0  0  0  0
   -3.1449    0.0615   -1.3907 H   0  0  0  0  0  0  0  0  0  0  0  0
   -0.7538   -2.1660    0.0192 H   0  0  0  0  0  0  0  0  0  0  0  0
    1.6173   -1.5751    0.3360 H   0  0  0  0  0  0  0  0  0  0  0  0
    3.1932    0.7911    0.6378 H   0  0  0  0  0  0  0  0  0  0  0  0
    3.3049   -0.3095   -0.7580 H   0  0  0  0  0  0  0  0  0  0  0  0
    2.9824    1.4321   -1.0006 H   0  0  0  0  0  0  0  0  0  0  0  0
  1  2  1  0  0  0  0
  2  3  2  0  0  0  0
  3  4  4  0  0  0  0
  4  5  4  0  0  0  0
  5  6  1  0  0  0  0
  5  7  4  0  0  0  0
  2  8  1  0  0  0  0
  7  8  1  0  0  0  0
  8  9  2  0  0  0  0
  1 10  1  0  0  0  0
  1 11  1  0  0  0  0
  1 12  1  0  0  0  0
  3 13  1  0  0  0  0
  4 14  1  0  0  0  0
  6 15  1  0  0  0  0
  6 16  1  0  0  0  0
  6 17  1  0  0  0  0
M  END
