 xtb: 6.7.1 (edcfbbe)
          08202602463D

 17 18  0     0  0            999 V2000
   -2.6373   -0.1286    0.4443 C   0  0  0  0  0  0  0  0  0  0  0  0
   -1.2811    0.2492   -0.0316 C   0  0  0  0  0  0  0  0  0  0  0  0
   -0.6365   -0.2170   -1.1700 C   0  0  0  0  0  0  0  0  0  0  0  0
    0.7405   -0.1965   -1.1086 C   0  0  0  0  0  0  0  0  0  0  0  0
    1.2204   -0.1018    0.1420 N   0  0  0  0  0  0  0  0  0  0  0  0
    2.5512   -0.4955    0.5253 C   0  0  0  0  0  0  0  0  0  0  0  0
    0.3899    0.2712    1.1108 N   0  0  0  0  0  0  0  0  0  0  0  0
   -0.5043    1.6924    0.7170 S   0  0  0  0  0  0  0  0  0  0  0  0
    0.2039    2.4277   -0.3273 O   0  0  0  0  0  0  0  0  0  0  0  0
   -2.8337   -1.1911    0.3132 H   0  0  0  0  0  0  0  0  0  0  0  0
   -2.7428    0.1206    1.4979 H   0  0  0  0  0  0  0  0  0  0  0  0
   -3.3839    0.4378   -0.1160 H   0  0  0  0  0  0  0  0  0  0  0  0
   -1.1691   -0.6715   -1.9864 H   0  0  0  0  0  0  0  0  0  0  0  0
    1.4178   -0.4279   -1.9099 H   0  0  0  0  0  0  0  0  0  0  0  0
    2.5199   -0.8378    1.5596 H   0  0  0  0  0  0  0  0  0  0  0  0
    3.2291    0.3599    0.4638 H   0  0  0  0  0  0  0  0  0  0  0  0
    2.9159   -1.2913   -0.1242 H   0  0  0  0  0  0  0  0  0  0  0  0
  1  2  1  0  0  0  0
  2  3  4  0  0  0  0
  3  4  4  0  0  0  0
  4  5  4  0  0  0  0
  5  6  1  0  0  0  0
  2  7  1  0  0  0  0
  5  7  1  0  0  0  0
  2  8  1  0  0  0  0
  7  8  1  0  0  0  0
  8  9  2  0  0  0  0
  1 10  1  0  0  0  0
  1 11  1  0  0  0  0
  1 12  1  0  0  0  0
  3 13  1  0  0  0  0
  4 14  1  0  0  0  0
  6 15  1  0  0  0  0
  6 16  1  0  0  0  0
  6 17  1  0  0  0  0
M  END
