 xtb: 6.7.1 (edcfbbe)
          08202602543D

 17 18  0     0  0            999 V2000
    0.8284    2.4460   -0.4134 O   0  0  0  0  0  0  0  0  0  0  0  0
    0.2961    2.6338    0.9561 S   0  0  0  0  0  0  0  0  0  0  0  0
    0.6729   -0.6043    0.0541 N   0  0  0  0  0  0  0  0  0  0  0  0
    1.6568   -0.5260    1.0898 C   0  0  0  0  0  0  0  0  0  0  0  0
    0.9389   -1.2230   -1.0775 N   0  0  0  0  0  0  0  0  0  0  0  0
   -0.1424   -1.1105   -1.8375 C   0  0  0  0  0  0  0  0  0  0  0  0
   -1.1379   -0.4009   -1.1777 C   0  0  0  0  0  0  0  0  0  0  0  0
   -0.5893   -0.0900    0.0699 C   0  0  0  0  0  0  0  0  0  0  0  0
   -1.1442    0.6544    1.1569 C   0  0  0  0  0  0  0  0  0  0  0  0
    1.3108   -1.0280    1.9962 H   0  0  0  0  0  0  0  0  0  0  0  0
    2.5551   -1.0177    0.7232 H   0  0  0  0  0  0  0  0  0  0  0  0
    1.8806    0.5177    1.3213 H   0  0  0  0  0  0  0  0  0  0  0  0
   -0.1575   -1.5396   -2.8189 H   0  0  0  0  0  0  0  0  0  0  0  0
   -2.1159   -0.1487   -1.5327 H   0  0  0  0  0  0  0  0  0  0  0  0
   -2.2285    0.7005    1.1520 H   0  0  0  0  0  0  0  0  0  0  0  0
   -1.0851    2.1024    0.8815 H   0  0  0  0  0  0  0  0  0  0  0  0
   -0.7335    0.4767    2.1397 H   0  0  0  0  0  0  0  0  0  0  0  0
  1  2  2  0  0  0  0
  3  4  1  0  0  0  0
  3  5  4  0  0  0  0
  5  6  4  0  0  0  0
  6  7  4  0  0  0  0
  3  8  4  0  0  0  0
  7  8  4  0  0  0  0
  2  9  1  0  0  0  0
  8  9  1  0  0  0  0
  4 10  1  0  0  0  0
  4 11  1  0  0  0  0
  4 12  1  0  0  0  0
  6 13  1  0  0  0  0
  7 14  1  0  0  0  0
  9 15  1  0  0  0  0
  2 16  1  0  0  0  0
  9 16  1  0  0  0  0
  9 17  1  0  0  0  0
M  END
