 xtb: 6.7.1 (edcfbbe)
          08202602403D

 17 17  0     0  0            999 V2000
   -2.0192   -0.0588    0.0039 C   0  0  0  0  0  0  0  0  0  0  0  0
   -0.5975    0.3688    0.0038 C   0  0  0  0  0  0  0  0  0  0  0  0
   -0.0093    1.6135    0.0035 C   0  0  0  0  0  0  0  0  0  0  0  0
    1.3711    1.3604    0.0092 C   0  0  0  0  0  0  0  0  0  0  0  0
    1.6160    0.0671    0.0128 N   0  0  0  0  0  0  0  0  0  0  0  0
    0.4213   -0.5212    0.0098 N   0  0  0  0  0  0  0  0  0  0  0  0
   -2.6672    0.8128   -0.0163 H   0  0  0  0  0  0  0  0  0  0  0  0
   -2.2426   -0.6399    0.8989 H   0  0  0  0  0  0  0  0  0  0  0  0
   -2.2341   -0.6749   -0.8699 H   0  0  0  0  0  0  0  0  0  0  0  0
   -0.5062    2.5609    0.0002 H   0  0  0  0  0  0  0  0  0  0  0  0
    2.1838    2.0583    0.0108 H   0  0  0  0  0  0  0  0  0  0  0  0
    0.3560   -1.5258    0.0099 H   0  0  0  0  0  0  0  0  0  0  0  0
   -0.9479   -4.2202   -0.0320 C   0  0  0  0  0  0  0  0  0  0  0  0
   -1.3543   -5.4066   -0.0204 N   0  0  0  0  0  0  0  0  0  0  0  0
   -1.7190   -6.4742   -0.0101 N   0  0  0  0  0  0  0  0  0  0  0  0
   -1.6600   -3.4182   -0.0508 H   0  0  0  0  0  0  0  0  0  0  0  0
    0.1079   -4.0313   -0.0228 H   0  0  0  0  0  0  0  0  0  0  0  0
  1  2  1  0  0  0  0
  2  3  4  0  0  0  0
  3  4  4  0  0  0  0
  4  5  2  0  0  0  0
  2  6  4  0  0  0  0
  5  6  4  0  0  0  0
  1  7  1  0  0  0  0
  1  8  1  0  0  0  0
  1  9  1  0  0  0  0
  3 10  1  0  0  0  0
  4 11  1  0  0  0  0
  6 12  1  0  0  0  0
 13 14  2  0  0  0  0
 13 15  1  0  0  0  0
 14 15  2  0  0  0  0
 13 16  1  0  0  0  0
 13 17  1  0  0  0  0
M  END
