 xtb: 6.7.1 (edcfbbe)
          08202602353D

  5  5  0     0  0            999 V2000
    1.1100    0.0472   -0.0767 C   0  0  0  0  0  0  0  0  0  0  0  0
    2.3629    0.0472   -0.0767 N   0  0  0  0  0  0  0  0  0  0  0  0
    3.4925    0.0472   -0.0767 N   0  0  0  0  0  0  0  0  0  0  0  0
    0.5784   -0.8263    0.2456 H   0  0  0  0  0  0  0  0  0  0  0  0
    0.5784    0.9207   -0.3990 H   0  0  0  0  0  0  0  0  0  0  0  0
  1  2  2  0  0  0  0
  1  3  1  0  0  0  0
  2  3  2  0  0  0  0
  1  4  1  0  0  0  0
  1  5  1  0  0  0  0
M  END
