 xtb: 6.7.1 (edcfbbe)
          08202602343D

 12 12  0     0  0            999 V2000
    2.2165    0.0305   -0.0021 C   0  0  0  0  0  0  0  0  0  0  0  0
    0.7296    0.0672   -0.0009 C   0  0  0  0  0  0  0  0  0  0  0  0
   -0.1053    1.2013   -0.0011 C   0  0  0  0  0  0  0  0  0  0  0  0
   -1.3850    0.7034    0.0001 C   0  0  0  0  0  0  0  0  0  0  0  0
   -1.2699   -0.6396    0.0009 N   0  0  0  0  0  0  0  0  0  0  0  0
    0.0010   -1.0365    0.0003 N   0  0  0  0  0  0  0  0  0  0  0  0
    2.6167    1.0409    0.0026 H   0  0  0  0  0  0  0  0  0  0  0  0
    2.5789   -0.4938   -0.8843 H   0  0  0  0  0  0  0  0  0  0  0  0
    2.5802   -0.5027    0.8743 H   0  0  0  0  0  0  0  0  0  0  0  0
    0.1963    2.2285   -0.0020 H   0  0  0  0  0  0  0  0  0  0  0  0
   -2.3395    1.1895    0.0005 H   0  0  0  0  0  0  0  0  0  0  0  0
   -2.0047   -1.3282    0.0020 H   0  0  0  0  0  0  0  0  0  0  0  0
  1  2  1  0  0  0  0
  2  3  4  0  0  0  0
  3  4  2  0  0  0  0
  4  5  4  0  0  0  0
  2  6  4  0  0  0  0
  5  6  4  0  0  0  0
  1  7  1  0  0  0  0
  1  8  1  0  0  0  0
  1  9  1  0  0  0  0
  3 10  1  0  0  0  0
  4 11  1  0  0  0  0
  5 12  1  0  0  0  0
M  END
