 xtb: 6.7.1 (edcfbbe)
          08202602543D

 17 17  0     0  0            999 V2000
   -2.2771   -1.2729   -0.3345 C   0  0  0  0  0  0  0  0  0  0  0  0
   -1.1773   -0.2976   -0.1013 C   0  0  0  0  0  0  0  0  0  0  0  0
   -1.3190    1.0242    0.0396 C   0  0  0  0  0  0  0  0  0  0  0  0
   -0.2211    1.9107    0.2932 C   0  0  0  0  0  0  0  0  0  0  0  0
    1.0068    1.5543    0.3974 N   0  0  0  0  0  0  0  0  0  0  0  0
    1.3870    0.3133    0.2187 N   0  0  0  0  0  0  0  0  0  0  0  0
    2.7822    0.0244    0.4514 C   0  0  0  0  0  0  0  0  0  0  0  0
    0.4171   -1.1522    0.0836 S   0  0  0  0  0  0  0  0  0  0  0  0
    0.3496   -1.7981    1.3905 O   0  0  0  0  0  0  0  0  0  0  0  0
   -3.2461   -0.7794   -0.3651 H   0  0  0  0  0  0  0  0  0  0  0  0
   -2.2802   -2.0138    0.4652 H   0  0  0  0  0  0  0  0  0  0  0  0
   -2.1170   -1.8033   -1.2743 H   0  0  0  0  0  0  0  0  0  0  0  0
   -2.3048    1.4671   -0.0272 H   0  0  0  0  0  0  0  0  0  0  0  0
   -0.4055    2.9646    0.4290 H   0  0  0  0  0  0  0  0  0  0  0  0
    3.1823   -0.5438   -0.3900 H   0  0  0  0  0  0  0  0  0  0  0  0
    2.9035   -0.5622    1.3653 H   0  0  0  0  0  0  0  0  0  0  0  0
    3.3197    0.9646    0.5517 H   0  0  0  0  0  0  0  0  0  0  0  0
  1  2  1  0  0  0  0
  2  3  2  0  0  0  0
  3  4  1  0  0  0  0
  4  5  2  0  0  0  0
  5  6  4  0  0  0  0
  6  7  1  0  0  0  0
  2  8  1  0  0  0  0
  6  8  1  0  0  0  0
  8  9  2  0  0  0  0
  1 10  1  0  0  0  0
  1 11  1  0  0  0  0
  1 12  1  0  0  0  0
  3 13  1  0  0  0  0
  4 14  1  0  0  0  0
  7 15  1  0  0  0  0
  7 16  1  0  0  0  0
  7 17  1  0  0  0  0
M  END
