 xtb: 6.7.1 (edcfbbe)
          08202602523D

 17 18  0     0  0            999 V2000
   -1.3451   -1.5526   -0.6977 C   0  0  0  0  0  0  0  0  0  0  0  0
   -0.9674   -0.4128    0.1835 C   0  0  0  0  0  0  0  0  0  0  0  0
   -1.4948    0.8777    0.1734 C   0  0  0  0  0  0  0  0  0  0  0  0
   -0.5637    1.8445    0.5210 C   0  0  0  0  0  0  0  0  0  0  0  0
    0.6929    1.4398    0.5623 N   0  0  0  0  0  0  0  0  0  0  0  0
    0.7806    0.1293    0.4977 N   0  0  0  0  0  0  0  0  0  0  0  0
    1.9852   -0.4543   -0.0316 C   0  0  0  0  0  0  0  0  0  0  0  0
   -0.1108   -0.8859    1.7497 S   0  0  0  0  0  0  0  0  0  0  0  0
   -0.5377   -0.0202    2.8291 O   0  0  0  0  0  0  0  0  0  0  0  0
   -2.1631   -2.1181   -0.2490 H   0  0  0  0  0  0  0  0  0  0  0  0
   -0.5035   -2.2320   -0.8241 H   0  0  0  0  0  0  0  0  0  0  0  0
   -1.6590   -1.1991   -1.6781 H   0  0  0  0  0  0  0  0  0  0  0  0
   -2.4505    1.1152   -0.2539 H   0  0  0  0  0  0  0  0  0  0  0  0
   -0.7565    2.8969    0.6110 H   0  0  0  0  0  0  0  0  0  0  0  0
    1.8160   -1.5146   -0.2122 H   0  0  0  0  0  0  0  0  0  0  0  0
    2.8058   -0.3395    0.6802 H   0  0  0  0  0  0  0  0  0  0  0  0
    2.2531    0.0392   -0.9662 H   0  0  0  0  0  0  0  0  0  0  0  0
  1  2  1  0  0  0  0
  2  3  4  0  0  0  0
  3  4  4  0  0  0  0
  4  5  4  0  0  0  0
  2  6  1  0  0  0  0
  5  6  4  0  0  0  0
  6  7  1  0  0  0  0
  2  8  1  0  0  0  0
  6  8  1  0  0  0  0
  8  9  2  0  0  0  0
  1 10  1  0  0  0  0
  1 11  1  0  0  0  0
  1 12  1  0  0  0  0
  3 13  1  0  0  0  0
  4 14  1  0  0  0  0
  7 15  1  0  0  0  0
  7 16  1  0  0  0  0
  7 17  1  0  0  0  0
M  END
