 xtb: 6.7.1 (edcfbbe)
          08202602353D

 15 15  0     0  0            999 V2000
    1.9307   -1.0992    0.0002 C   0  0  0  0  0  0  0  0  0  0  0  0
    0.5146   -0.6541    0.0057 C   0  0  0  0  0  0  0  0  0  0  0  0
   -0.6656   -1.3692    0.0052 C   0  0  0  0  0  0  0  0  0  0  0  0
   -1.6732   -0.3982    0.0101 C   0  0  0  0  0  0  0  0  0  0  0  0
   -1.1575    0.8155    0.0130 N   0  0  0  0  0  0  0  0  0  0  0  0
    0.1640    0.6528    0.0095 N   0  0  0  0  0  0  0  0  0  0  0  0
    1.0374    1.7886    0.0171 C   0  0  0  0  0  0  0  0  0  0  0  0
    1.9741   -2.1846    0.0112 H   0  0  0  0  0  0  0  0  0  0  0  0
    2.4606   -0.7190    0.8741 H   0  0  0  0  0  0  0  0  0  0  0  0
    2.4472   -0.7383   -0.8900 H   0  0  0  0  0  0  0  0  0  0  0  0
   -0.7810   -2.4338    0.0021 H   0  0  0  0  0  0  0  0  0  0  0  0
   -2.7362   -0.5334    0.0111 H   0  0  0  0  0  0  0  0  0  0  0  0
    0.4148    2.6800   -0.0091 H   0  0  0  0  0  0  0  0  0  0  0  0
    1.6945    1.7778   -0.8550 H   0  0  0  0  0  0  0  0  0  0  0  0
    1.6505    1.8011    0.9212 H   0  0  0  0  0  0  0  0  0  0  0  0
  1  2  1  0  0  0  0
  2  3  4  0  0  0  0
  3  4  4  0  0  0  0
  4  5  2  0  0  0  0
  2  6  4  0  0  0  0
  5  6  1  0  0  0  0
  6  7  1  0  0  0  0
  1  8  1  0  0  0  0
  1  9  1  0  0  0  0
  1 10  1  0  0  0  0
  3 11  1  0  0  0  0
  4 12  1  0  0  0  0
  7 13  1  0  0  0  0
  7 14  1  0  0  0  0
  7 15  1  0  0  0  0
M  END
