 xtb: 6.7.1 (edcfbbe)
          08202602263D

 15 15  0     0  0            999 V2000
    2.4257   -0.6185    0.2563 C   0  0  0  0  0  0  0  0  0  0  0  0
    1.0553   -0.0730    0.0656 C   0  0  0  0  0  0  0  0  0  0  0  0
   -0.0212   -0.8305    0.1961 N   0  0  0  0  0  0  0  0  0  0  0  0
   -1.0692   -0.0441   -0.0368 N   0  0  0  0  0  0  0  0  0  0  0  0
   -2.4023   -0.5674    0.0242 C   0  0  0  0  0  0  0  0  0  0  0  0
   -0.6891    1.2182   -0.3184 C   0  0  0  0  0  0  0  0  0  0  0  0
    0.6839    1.2441   -0.2625 C   0  0  0  0  0  0  0  0  0  0  0  0
    2.9400   -0.0837    1.0537 H   0  0  0  0  0  0  0  0  0  0  0  0
    3.0090   -0.5080   -0.6570 H   0  0  0  0  0  0  0  0  0  0  0  0
    2.3634   -1.6716    0.5145 H   0  0  0  0  0  0  0  0  0  0  0  0
   -2.8945   -0.4902   -0.9478 H   0  0  0  0  0  0  0  0  0  0  0  0
   -2.3321   -1.6148    0.3096 H   0  0  0  0  0  0  0  0  0  0  0  0
   -2.9957   -0.0285    0.7655 H   0  0  0  0  0  0  0  0  0  0  0  0
   -1.4042    1.9874   -0.5323 H   0  0  0  0  0  0  0  0  0  0  0  0
    1.3312    2.0805   -0.4307 H   0  0  0  0  0  0  0  0  0  0  0  0
  1  2  1  0  0  0  0
  2  3  4  0  0  0  0
  3  4  1  0  0  0  0
  4  5  1  0  0  0  0
  4  6  4  0  0  0  0
  2  7  4  0  0  0  0
  6  7  2  0  0  0  0
  1  8  1  0  0  0  0
  1  9  1  0  0  0  0
  1 10  1  0  0  0  0
  5 11  1  0  0  0  0
  5 12  1  0  0  0  0
  5 13  1  0  0  0  0
  6 14  1  0  0  0  0
  7 15  1  0  0  0  0
M  END
