 xtb: 6.7.1 (edcfbbe)
          08202602353D

 12 12  0     0  0            999 V2000
   -2.2661   -0.0751   -0.0046 C   0  0  0  0  0  0  0  0  0  0  0  0
   -0.7890    0.0775   -0.0008 C   0  0  0  0  0  0  0  0  0  0  0  0
    0.0215    1.1916    0.0037 C   0  0  0  0  0  0  0  0  0  0  0  0
    1.3308    0.6889    0.0039 C   0  0  0  0  0  0  0  0  0  0  0  0
    1.3323   -0.6278    0.0010 N   0  0  0  0  0  0  0  0  0  0  0  0
    0.0483   -0.9850   -0.0013 N   0  0  0  0  0  0  0  0  0  0  0  0
   -2.7387    0.9026    0.0171 H   0  0  0  0  0  0  0  0  0  0  0  0
   -2.5968   -0.6427    0.8652 H   0  0  0  0  0  0  0  0  0  0  0  0
   -2.5966   -0.6026   -0.8995 H   0  0  0  0  0  0  0  0  0  0  0  0
   -0.2835    2.2176    0.0060 H   0  0  0  0  0  0  0  0  0  0  0  0
    2.2550    1.2307    0.0067 H   0  0  0  0  0  0  0  0  0  0  0  0
   -0.1966   -1.9621   -0.0044 H   0  0  0  0  0  0  0  0  0  0  0  0
  1  2  1  0  0  0  0
  2  3  4  0  0  0  0
  3  4  4  0  0  0  0
  4  5  2  0  0  0  0
  2  6  4  0  0  0  0
  5  6  4  0  0  0  0
  1  7  1  0  0  0  0
  1  8  1  0  0  0  0
  1  9  1  0  0  0  0
  3 10  1  0  0  0  0
  4 11  1  0  0  0  0
  6 12  1  0  0  0  0
M  END
